<?xml version="1.0" encoding="UTF-8"?>

<!-- generated on 2025-11-24 10:31:40 by Eclipse SUMO jtrrouter Version 1.24.0
<jtrrouterConfiguration xmlns:xsi="http://www.w3.org/2001/XMLSchema-instance" xsi:noNamespaceSchemaLocation="http://sumo.dlr.de/xsd/jtrrouterConfiguration.xsd">

    <input>
        <net-file value="gangnam_int.net.xml"/>
        <route-files value="gangnam_int.rou.xml"/>
    </input>

    <output>
        <output-file value="gangnam_int_with_turns.rou.xml"/>
    </output>

    <processing>
        <turn-defaults value="20,60,20"/>
    </processing>

</jtrrouterConfiguration>
-->

<routes xmlns:xsi="http://www.w3.org/2001/XMLSchema-instance" xsi:noNamespaceSchemaLocation="http://sumo.dlr.de/xsd/routes_file.xsd">
    <vehicle id="D-38_Inbound_20250101_00.0" depart="0.00">
        <route edges="522435830#0 522435830#1 522435830#2 522435831#0 -636898114 636898114 -522435831#0 -522435825 522435826#0 522435826#1 130065867#0 130065867#1 130065867#2 130065867#3 417923175#0 417923175#1 417923175#2 -377944995#5 -377944995#4 -377944995#3 31755407#0 31755407#1 31755407#2 -417916133#1 -417916133#0 417916133#0 417916133#1 417916135#1 900203744 -443037578#1 -443037578#0 443037578#0 443037578#1 75761789#0 75761789#1 -75761789#1 -75761789#0 443037578#2 218724601#0 -130065885#1 -130065885#0 -130065882 130065882 900203722 417923183#0 417923183#1 377944995#3 377944995#4 377944995#5 31735618#0 31735618#1 31735618#2 31735618#3 -31733644 31733644 31735618#4 31735618#5 31735618#6 31735618#7 31735618#8 -31735618#8 -31735618#7 -31735618#6 -31735618#5 -31735618#4 -31735618#3 -31735618#2 -31735618#1 -31735618#0 377944995#6 -377944995#6 -417923175#2 -417923175#1 -417923175#0 -130065867#3 -130065867#2 -130065867#1 -130065867#0 522435826#2 522435826#3 -417927300 117795645#0 117795645#1 117795645#2 117795645#3 117795645#4 -117795657#2 417927295#0 417927295#1 -417927295#1 -417927295#0 -117795632#9 -117795632#8 -117795632#7 -117795632#6 -117795632#5 -117795632#4 -117795632#3 -117795632#2 -117795632#1 -117795632#0 117795632#0 117795632#1 -117795642#1 417927300 522435826#4"/>
    </vehicle>
    <vehicle id="D-38_Outbound_20250101_00.0" depart="0.00">
        <route edges="218448824#2 218448824#3 914904187 522435822#11 417746835 239953386#2 239953386#3 -417746809#6 -417746809#5 -417746809#4 -417746809#3 117786463#4 117786463#5 117786463#6 117786463#7 117786463#8 117786463#9 117786463#10 117786463#11 117786463#12 117786463#13 -117786463#13 -117786463#12 -117786463#11 -117786463#10 -117786463#9 -117786463#8 -117786463#7 -117786463#6 -117786463#5 -117786463#4 417746809#3 417746809#4 -239953464#1 239953464#1 239953464#2 239953464#3 239953464#4 239953464#5 239953464#6 -239953464#6 -239953464#5 -239953464#4 -239953464#3 -239953464#2 417746809#5 417746809#6 239953386#4 239953386#5 239953386#6 -239953463#6 239953463#6 -239953386#6 -239953386#5 -417746834 -379526750#4 -379526748 379526748 379526750#4 417746834 -239953386#4 -239953386#3 -239953386#2 -417746835 522435822#12 -522435822#12 -522435822#11 -522435822#10 218448824#5 218448824#6 218448824#7 218448824#8 218448824#9 -210334209#3 210334209#3 218448824#10 218448824#11 218448824#12 375049444#0 375049444#1 375049444#2 375049444#3 1422793293#0 1422793293#1 -1422793293#1 -1422793293#0 375049444#4 375049444#5 -130065866#3 -130065866#2 -130065866#1 -130065866#0 417929408#0 417929408#1 117795648#1 117795648#2 117795648#3 -417927292#1 -417927292#0 -117795644#3 -117795644#2 117795650#4 117823777#0 117823777#1 117823777#2 117823777#3 -117823789#6 -117823789#5 -117823789#4 -117823789#3 -417933654 117823767#0 117823767#1 -117823767#1 -117823767#0 417933654 -117823789#2 -117823789#1 -117823794#1 -379417025#1 -379417025#0 379417025#0 379417025#1 117823794#1 -117823789#0 117823789#0 117823789#1 117823789#2 117823789#3 117823789#4 117823789#5 117823789#6 117823777#4 117823777#5 -117823777#5 -117823777#4 -117823777#3 -117823777#2 -117823777#1 354725380#0 354725380#1 411553135#0 -411553135#0 404008685#0 404008685#1 -411553137 117795644#4 117795644#5 525738548#1 525738548#2 117786467#0 117786467#1 -417927293#1 -417927293#0 -117795648#3 -117795648#2 117795650#2 117795650#3 -117795644#1 -417929408#3 -417929408#2 -417929408#1 -417929408#0 130065866#0 130065866#1 117795640#3 117795634#2 117795635#0 -117795635#0 -117795634#2 -117795640#3 -117795640#2 -117795640#1 -117795640#0 417927288#6 -417927288#6 117795640#0 117795640#1 117795640#2 130065866#2 130065866#3 375049444#6 375049444#7 435319059 522435825 908696520#0 908696520#1 908696520#2 908696520#3 908696520#4 908696520#5 908696520#6 908696520#8 908696520#9 908696520#10 908696520#11 908696520#12 908696520#13 908696520#14 -72465260#7 -72465260#6 -72465260#5 -72465260#4 -72465260#3 -72465293#5 -72465293#4 -72465293#3 -72465259#1 -72465259#0 72465259#0 72465259#1 -72465293#2 -72465293#1 -72465293#0 72465291#2 72465265#0 72465265#1 417745012#0 417745012#1 417745012#2 417745012#3 -417745012#3 -417745012#2 72465271#5 72465271#6 72465271#7 72465308#0 72465286#2 -72465261#1 -72465261#0 -369687318#1 -369687318#0 443035112#0 -72465265#9 -72465265#8 -72465265#7 -72465265#6 -72465265#5 -72465265#4 -72465265#3 -72465265#2 -72465265#1 -72465265#0 417745013 -417745013 -72465291#2 72465293#0 72465293#1 72465293#2 72465293#3 72465293#4 72465293#5 72465260#3 72465260#4 72465260#5 72465260#6 72465290#2 72465290#3 72465290#4 72465298#0 72465298#1 -72465309 72465309 -72465298#1 -72465298#0"/>
    </vehicle>
    <vehicle id="D-42_Inbound_20250101_00.0" depart="0.00">
        <route edges="218864491#0 218864491#1 -417933642#3 -417933642#2 -117823785#6 -117823785#5 -117823773#2 -117823773#1 -117823773#0 117823773#0 117823773#1 117823773#2 117823785#5 117823785#6 -309155295 309155295 417933642#2 417933642#3 417933642#4 -417933642#4 218864491#2 218864491#3 218864491#4 176732663#0 -176732664#4 -176732664#3 117823788#1 117823788#2 117823785#3 117823785#4 -117823785#4 -117823785#3 -117823788#2 -117823788#1 -176732664#2 -176732664#1 -176732664#0 -210332891#0 210332891#0 176732664#0 176732664#1 176732664#2 176732664#3 176732664#4 176732663#1 -176732663#1 -176732663#0 218864491#5 218864491#6 218864491#7 218864491#8 -210332891#1 210332891#1 218864491#9 921656457 375049565#1 210332897#0 210332897#1 -210332897#1 -210332897#0 375049565#2 375049565#3 -239953388 239953385#2 239953385#3 239953385#4 210332897#2 210332897#3 -210332897#3 -210332897#2"/>
    </vehicle>
    <vehicle id="D-42_Outbound_20250101_00.0" depart="0.00">
        <route edges="921219577#1 921219577#2 72465315#0 72465315#1 72465315#2 72465315#3 72465315#4 210328491#0 210328491#1 210328491#2 210328491#3 -72465246#4 -72465246#3 -72465246#2 72465246#2 72465246#3 72465246#4 210328491#4 210328491#5 210328491#6 -369687318#5 -369687318#4 -369687318#3 -369687318#2 -73656407 -72465246#1 -72465246#0 72465246#0 72465246#1 73656407 -369687318#1 -369687318#0 369687318#0 369687318#1 72465261#0 72465261#1 -72465286#2 -72465286#1 -72465286#0 72465286#0 72465286#1 72465308#1 72465308#2 369687318#5 -210328491#6 -210328491#5 -210328491#4 -210328491#3 -210328491#2 -210328491#1 -210328491#0 -72465252#4 -72465252#3 -417734691#4 -417734691#3 -73656397#0 73656397#0 417734691#3 417734691#4 72465252#3 210328490#0 210328490#1 -210328490#1 -210328490#0 72465252#4 -72465315#4 -72465315#3 -72465315#2 -72465315#1 -72465315#0 921219577#3 921219577#4 443035112#0 -72465265#9 -72465265#8 -72465265#7 -72465265#6 -72465265#5 -72465265#4 -72465265#3 -72465265#2 -72465265#1 -72465265#0 417745013 72465298#4 72465298#5 72465298#6 -72465298#6 -72465298#5 -72465298#4 -417745013 -72465291#2 72465291#2 72465265#0 72465265#1 72465265#2 72465265#3 72465265#4 72465265#5 72465265#6 72465265#7 -72465261#3 -72465261#2 -72465261#1 -72465261#0 369687318#2 369687318#3 369687318#4"/>
    </vehicle>
    <vehicle id="D-42_Outbound_20250101_00.1" depart="3.90">
        <route edges="921219577#1 921219577#2 921219577#3 72465246#0 72465246#1 73656407 -73656407 72465246#2 72465246#3 72465246#4 210328491#4 210328491#5 210328491#6 -369687318#5 -369687318#4 -369687318#3 -369687318#2 72465261#0 72465261#1 -72465261#1 -72465261#0 369687318#2 369687318#3 369687318#4 369687318#5 369687318#6 -417745012#6 -417745012#5 -417745012#4 72465286#0 72465286#1 72465308#1 804068466#0 804068466#1 804068466#2 417745012#5 417745012#6 369687318#7 369687318#8 72465301#0 72465301#1 72465301#2 72465301#3 72465270#0 72465270#1 72465270#2 -72465270#2 -72465270#1 -72465287#5 -72465287#4 -72465287#3 72465316#1 -72465301#7 -72465301#6 -72465301#5 72465312 -522435822#1 -522435822#0 -369687318#9 -369687318#8 -369687318#7 -369687318#6 -210328491#6 -210328491#5 -210328491#4 -210328491#3 -210328491#2 -210328491#1 -210328491#0 -72465315#4 -72465315#3 -72465315#2 -72465315#1 -72465315#0 72465315#0 72465315#1 72465315#2 72465315#3 72465315#4 210328491#0 210328491#1 210328491#2 210328491#3 -72465246#4 -72465246#3 -72465246#2 -72465246#1 -72465246#0 921219577#4 627582868 921219576#0 921219576#1 921219576#2 -417920132#4 -417920132#3 -417920132#2 -417920132#1 -417920132#0 417920135#0 417920135#1 78061501#4 78061511#0 78061511#1 78061511#2 78061511#3 78061511#4 78061511#5 805307888 417920132#0 417920132#1 417920132#2 417920132#3 417920132#4 921219576#3 921219576#4 921219576#5 443035110#0 443035110#1 417920135#3 -417920135#3 443035110#2 443035110#3 443035110#4 -522435824#9 -417920159 906148140#0 906148140#1 906148140#2 906148140#3 906148140#4 906148140#5 417920131#0 417920131#1 417920131#2 417920131#3 -31755396#2 -31755396#1 -31755396#0 -377944995#6 31735618#0 31735618#1 31735618#2 31735618#3 -31735618#3 -31735618#2 -31735618#1 -31735618#0 -417923175#2 -417923175#1 -130065869#1 -130065869#0 417923183#1 377944995#3 377944995#4 377944995#5 377944995#6 377944995#7 522435823#0 417920133#0 417920133#1 417920133#2 417920133#3 417920133#4 417920133#5 417920133#6 78061510#0 78061510#1 417920134#0 417920134#1 417920134#2 417920134#3 417920134#4 417920134#5 417920134#6 417920153#0 417920153#1 417920153#2 -417920153#2 -417920153#1 -417920153#0 417920134#7 417920134#8 417920134#9 417920134#10 417920134#11 522435823#2 522435823#3 522435823#4 522435823#5 522435823#6 -627582868 369687318#0 369687318#1 -369687318#1 -369687318#0 443035112#0 -72465265#9 -72465265#8 72465261#4 72465261#5 72465261#6 -72465248#0 72465314#0 72465314#1 908696520#12 908696520#13 908696520#14 515476886#0 -417745005#1 -417745005#0 417745005#0 72465290#0 72465290#1 72465290#2 72465290#3 72465290#4 72465298#0 72465298#1 72465298#2 72465298#3 72465298#4 72465298#5 72465298#6 72465266#2 -72465266#2 -72465298#6 -72465298#5 -72465298#4 -72465298#3 -72465298#2 -72465298#1 -72465298#0 72465259#0 72465259#1 72465293#3 72465293#4 72465293#5 72465316#0 72465287#3 72465287#4 72465287#5 -72465270#0 72465301#4 -72465301#4 -72465301#3 -72465301#2 -72465301#1 -72465301#0 369687318#9 522435822#0 522435822#1 -72465312 72465301#5 72465301#6 72465301#7 417745006#0 417745006#1 417745006#2 417745006#3 -72465263 522435822#7 -522435822#7 -522435822#6 -522435822#5 -522435822#4 -522435822#3 -522435822#2 522435822#2 522435822#3 522435822#4 522435822#5 522435822#6 72465263 -417745006#3 -417745006#2 -417745006#1 -417745006#0 -72465316#1 -72465287#2 -72465287#1 -72465287#0 72465287#0 72465287#1 72465287#2 -72465316#0 72465260#3 72465260#4 72465260#5 72465260#6 -72465260#6 -72465260#5 -72465260#4 -72465260#3 -72465293#5 -72465293#4 -72465293#3 -72465293#2 -72465293#1 -72465293#0 -72465291#1 -72465291#0 72465291#0 72465291#1 72465291#2 417745013 -417745013 72465265#0 72465265#1 72465265#2 72465265#3 72465265#4 72465265#5 72465265#6 72465265#7 72465265#8 72465265#9 443035112#1 443035112#2 443035112#3 443035112#4 443035112#5 443035112#6 375049444#0 375049444#1 375049444#2 375049444#3 375049444#4 117795634#0 117795634#1 117795634#2 -117795634#2 -117795634#1 -117795634#0 375049444#5 -130065866#3 -130065866#2 -117795640#2 -117795640#1 -117795640#0 417927288#6 -417927288#6 -417927288#5 -417927288#4 -417927288#3 -417927288#2 -417927288#1 -417927288#0 -117786467#3 -117786467#2 417927291#0 417927291#1 417927290#0 417927290#1 435319059 522435825 522435831#0 -636898114 636898114 522435831#1 -417923174 -130065867#3 417927284 -417927284 -130065867#2 -130065867#1 -130065867#0 522435826#2 117795632#0 117795632#1 117795632#2 117795632#3 117795632#4 117795632#5 117795632#6 117795632#7 117795632#8 117795632#9 -117795657#1 417927294#0 417927294#1 417927294#2 -218724604#0 218724604#0 218724604#1 919983794#0 919983794#1 -411553137 -117795644#3 -117795644#2 117795644#2 117795644#3 417927292#0 417927292#1 -117795648#3 -117795648#2 117795648#2 117795648#3 -417927292#1 -417927292#0 117795644#4 117795644#5 -117795644#5 -117795644#4 411553137 -404008685#1 411552581 623719388#2 -218724604#1"/>
    </vehicle>
    <vehicle id="D-42_Inbound_20250101_00.1" depart="4.14">
        <route edges="218864491#0 218864491#1 -417933642#3 -417933642#2 -117823785#6 -117823785#5 -117823785#4 -117823785#3 -117823785#2 -117823785#1 -117823785#0 210332891#0 210332891#1 218864491#9 921656457 375049565#1 210332897#0 210332897#1 210332897#2 210332897#3 239953379 -802770126 417750359 239953790 -239953380#4 -239953380#3 -239953380#2 -239953389 802770126"/>
    </vehicle>
    <vehicle id="D-38_Outbound_20250101_00.1" depart="6.13">
        <route edges="218448824#2 218448824#3 914904187 -522435822#10 -522435822#9 515476886#3"/>
    </vehicle>
    <vehicle id="D-38_Inbound_20250101_00.1" depart="7.68">
        <route edges="522435830#0 417927281 -417927281 522435830#1 522435830#2 908696520#0 908696520#1 130065880#0 130065880#1 130065880#2 130065883#0 130065883#1 130065883#2 -130065883#2 -130065883#1 130065873 -130065873 -130065883#0 130065881#0 130065881#1 -130065881#1 -130065881#0 -130065880#2 -130065880#1 -130065880#0 908696520#2 908696520#3 908696520#4 908696520#5 908696520#6 908696520#8 908696520#9 908696520#10 908696520#11 908696520#12 908696520#13 908696520#14 -72465260#7 -72465260#6 -72465260#5 -72465260#4 -72465260#3 -72465260#2 -72465260#1 -72465260#0 72465271#0 72465271#1 72465271#2 72465271#3 72465271#4 72465271#5 72465271#6 72465271#7 72465308#0 72465308#1 72465308#2 -369687318#4 -369687318#3 -369687318#2 -73656407 72465246#2 72465246#3 72465246#4 210328491#4 210328491#5 210328491#6 -369687318#5 369687318#5 369687318#6 -369687318#6 -210328491#6 -210328491#5 -210328491#4 -210328491#3 -210328491#2 -210328491#1 -210328491#0 210328491#0 210328491#1 210328491#2 210328491#3 -72465246#4 -72465246#3 -72465246#2 -72465246#1 -72465246#0 72465246#0 72465246#1 73656407 72465261#0 72465261#1 72465261#2 72465261#3 72465261#4 72465268#1 443035112#2 443035112#3 443035112#4 443035112#5 443035112#6 375049444#0 375049444#1 375049444#2 375049444#3 1422793293#0 1422793293#1 -117795635#0 -117795634#2 -117795634#1 -117795634#0 375049444#5 375049444#6 375049444#7 435319059 522435825 522435831#0 522435831#1 522435831#2 522435831#3 522435823#0 522435823#1 -522435823#1 417920133#0 417920133#1 417920133#2 417920133#3 417920133#4 417920133#5 417920133#6 78061500#0 78061500#1 78061500#2 78061500#3 78061500#4 78061500#5 78061500#6 78061500#7 78061500#8 78061500#9 417920139#3 -417920139#3 805307890 -805307890 -417920139#2 -417920139#1 -417920139#0 -78061501#4 -417920135#1 -417920135#0 -805307888 417920134#0 417920134#1 417920134#2 417920134#3 417920134#4 417920134#5 417920134#6 417920153#0 417920153#1 417920153#2 -417920153#2 -417920153#1 -417920153#0 -78061509#3 -61308649#3 -61308649#2 -61308649#1 -61308649#0 -72509418 -435319066 435319066 -72509419#3 -72509419#2 -72509419#1 -72509419#0 375049445#6 -627582868 443035112#0 -72465265#9 -72465265#8 -72465265#7 -72465265#6 -72465265#5 -72465265#4 -72465265#3 -72465265#2 -72465265#1 -72465265#0 -72465291#2 72465293#0 -72465293#0 -72465291#1 -72465291#0 72465291#0 72465291#1 72465291#2 417745013 -417745013 72465265#0 72465265#1 417745012#0 417745012#1 -417745012#1 -417745012#0 -72465266#2 -72465266#1 417745011#9 417745011#10 -417745011#10 -417745011#9 72465266#1 -72465298#6 -72465298#5 -72465298#4 -72465298#3 -72465298#2 -72465298#1 -72465298#0 72465259#0 72465259#1 -72465293#2 -72465293#1 72465309 72465298#2 72465298#3 72465298#4 72465298#5 72465298#6 72465266#2 72465265#2 72465265#3 72465265#4 72465265#5 72465265#6 72465265#7 72465265#8 72465265#9 443035112#1 -72465268#1 72465261#5 -72465261#5 -72465268#0 -417745011#13 -417745011#12 -417745011#11 805827667 -805827667 417745011#11 417745011#12 417745011#13 72465268#0 -72465261#4 -72465261#3 -72465261#2 -72465286#2 72465286#2 -72465261#1 -72465261#0 369687318#2 369687318#3 369687318#4"/>
    </vehicle>
    <vehicle id="D-42_Outbound_20250101_00.2" depart="7.79">
        <route edges="921219577#1 -417734691#7 -417734691#6 -417734691#5 72465252#3 -72465252#3 -417734691#4 -417734691#3 -73656397#0 73656397#0 -417734691#2 417734691#2 417734691#3 417734691#4 417734691#5 417734691#6 417734691#7 921219577#2 72465315#0 72465315#1 72465315#2 72465315#3 72465315#4 -72465315#4 -72465315#3 -72465315#2 -72465315#1 -72465315#0 921219577#3 72465246#0 72465246#1 -72465246#1 -72465246#0 921219577#4 443035112#0 -72465265#9 -72465265#8 72465261#4 72465268#1 443035112#2 -72465248#1 -72465248#0 72465248#0 -72465261#6 72465261#6 72465248#1 443035112#3 443035112#4 443035112#5 443035112#6 919983795#0 919983795#1 919983795#2 919983795#3 239953210#0 239953210#1 239953210#2 239953210#3 -186014485 -210334210#1 -210334210#0 210334210#0 210334210#1 210334210#2 -417746811#1 -417746811#0 -117786468#4 -117786468#3 -117786468#2 -117786468#1 -117786468#0 239953383#0 117786462#0 117786462#1 417746813#0 417746813#1 -417746813#1 -417746813#0 -417746810#1 -417746810#0 -239953210#6 908361436#0 908361436#1 908361436#2 908723955 210334209#0 210334209#1 210334209#2 -210334209#2 -210334209#1 -210334209#0 -210334210#2 186014485 239953210#4 239953210#5 -239953210#5 -239953210#4 -239953210#3 -239953210#2 -239953210#1 -239953210#0 919983795#4 919983795#5 919983795#6 921659599 919983793#1 919983793#2 919983793#3 919983793#4 919983793#5 -117795635#4 -117795635#3 -117795635#2 -117795635#1 -1422793293#1 -1422793293#0 375049444#4 117795634#0 117795634#1 -117795640#3 130065866#2 130065866#3 375049444#6 -417927288#6 -417927288#5 -417927288#4 117795636#0 117795636#1 117795636#2 -525738548#3 -525738548#2 -525738548#1 -525738548#0 919983794#0 919983794#1 -919983794#1 -919983794#0 -218724604#1 -218724604#0 218724604#0 218724604#1 525738548#0 -117795644#5 -117795644#4 -117795644#3 -117795644#2 117795650#4 117823777#0 -117823777#0 919983794#4 411553136 -404008684#1 -404008684#0 210332890#2 -210332890#2 404008684#0 404008684#1 -411553136 919983794#5 -802770127#3 -802770127#2 117795644#0 117795644#1 -117795644#1 -117795644#0 802770127#2 802770127#3 919983794#6 919983794#7 -919983792 921278930#0 921278930#1 -210332899#1 -210332899#0 210332899#0 210332899#1 921278928 525738547#0 525738547#1 417746802#0 417750356#2 417750356#3 417750356#4 417750356#5 -210332897#4 210332897#4 -417750356#5 239953380#0 239953380#1 -239953380#1 -239953380#0 -417750356#4 -417750356#3 -417750356#2 417746802#1 417746802#2 -117790053#1 -117790053#0 117790053#0 117790053#1 417746802#3 -239953792#1 -239953792#0 -239953380#2 -239953389 239953389 239953380#2 239953380#3 239953380#4 239953380#5 -239953791#3 -239953791#2 239953789 417750350#0 417750350#1 -417750350#1 -417750350#0 -417750341#1 -417750341#0 -417750340 -117790039#5 117790039#5 117790039#6 -117790039#6 417750340 117790048#0 -117790048#0 417750341#0 417750341#1 -239953789 -239953791#1 -239953791#0 417746802#6 -417746802#6 117790054 -117790054 239953791#0 239953791#1 239953791#2 239953791#3 417750348#0 417750348#1 239953385#0 239953385#1 239953388 -239953388 239953385#2 239953385#3 239953385#4 -210332897#1 -210332897#0 375049565#2 375049565#3 375049565#4 375049565#5 375049565#6 117790039#0 117790039#1 117790039#2 117790039#3 117790039#4 417750352 -417750352 -117790039#4 -117790039#3 129731859#3 129731859#4 129731859#5 129731859#6 -417750348#1 239954001 -239954001 -417750348#0 -239953380#5 -239953380#4 -239953380#3 239953792#0 239953792#1 -417746802#3 -417746802#2 -417746802#1 -417750356#1 -417750356#0 -239954367#2 -239954367#1 -239954367#0 239954365#1 239954365#2 239954365#3 239954365#4 -239954365#4 -239954365#3 -239954365#2 -239954365#1 -239954365#0 117790055#3 417750356#1 -417746802#0 -525738547#1 -525738547#0 -921278928 -921278930#1 -921278930#0 919983792 919983793#0"/>
    </vehicle>
    <vehicle id="D-42_Inbound_20250101_00.2" depart="8.27">
        <route edges="218864491#0 218864491#1 218864491#2 218864491#3 218864491#4 176732663#0 -176732664#4 -176732664#3 -117823788#0 218864491#7 218864491#8 218864491#9 921656457 375049565#1 375049565#2 375049565#3 -239953388 239953385#2 239953385#3 239953385#4 210332897#2 210332897#3 239953379 -802770126 417750359 239953790 239953380#5 417750348#0 239954001 802770122#1 239953385#1 239953388 375049565#4 -417750348#2 -417750348#1 -417750348#0 -239953791#3 -239953791#2 239953789 417750350#0 417750350#1 117790039#5 117790039#6 -117790039#6 417750340 -417746802#6 -417746802#5 -417746802#4 -417746802#3 -417746802#2 -417746802#1 -417746802#0 -239953383#4 -239953383#3 -239953463#1 -239953463#0 239953463#0 239953463#1 239953463#2 -417746801 -525738547#2 417746802#0 417746802#1 417746802#2 -117790053#1 -117790053#0 117790053#0 117790053#1 417746802#3 417746802#4 417746802#5 117790054 -117790055#0 -117790048#0 417750341#0 417750341#1 -239953789 239953791#2 239953791#3 -239953380#5 -239953380#4 -239953380#3 239953792#0 239953792#1 -239953792#1 -239953792#0 -239953380#2 239953380#2 239953380#3 239953380#4 -239953790 802770122#0 -239954001 417750348#1 417750348#2 375049565#5 375049565#6 375049565#7 375049565#8 375049565#9 375049565#10"/>
    </vehicle>
    <vehicle id="D-42_Outbound_20250101_00.3" depart="11.69">
        <route edges="921219577#1 921219577#2 72465315#0 72465315#1 72465315#2 72465315#3 72465315#4 210328491#0 210328491#1 210328491#2 210328491#3 -72465246#4 -72465246#3 -72465246#2 -72465246#1 -72465246#0 72465246#0 72465246#1 73656407 72465261#0 72465261#1 72465261#2 72465261#3 -72465261#3 -72465261#2 -72465261#1 -72465261#0 369687318#2 369687318#3 369687318#4 369687318#5 -210328491#6 -210328491#5 -210328491#4 210328491#4 210328491#5 210328491#6 -369687318#5 -369687318#4 -369687318#3 -369687318#2 -73656407 72465246#2 72465246#3 72465246#4 -210328491#3 -210328491#2 -210328491#1 -210328491#0 -72465252#4 -72465252#3 72465252#3 72465252#4 -72465315#4 -72465315#3 -72465315#2 -72465315#1 -72465315#0 921219577#3 921219577#4 627582868 -522435823#6 -522435823#5 -522435823#4 -522435823#3 61308649#0 61308649#1 61308649#2 61308649#3 -78061509#2 -78061509#1 -78061509#0 921219576#1 921219576#2 921219576#3 78061501#0 78061501#1 78061501#2 78061501#3 417920135#2 443035110#2 443035110#3 -805307890 417920139#3 -417920159 906148140#0 906148140#1 906148140#2 906148140#3 906148140#4 906148140#5 417920131#0 417920131#1 417920131#2 417920131#3 -906148142 906148142 31733644 -31735618#3 -31735618#2 -31735618#1 -31735618#0 -417923175#2 -417923175#1 417923175#1 417923175#2 377944995#6 377944995#7 522435824#0 522435824#1 522435824#2 522435824#3 805307891#0 805307891#1 78061500#0 78061500#1 78061500#2 78061500#3 78061500#4 78061500#5 78061500#6 78061500#7 78061500#8 78061500#9 805307890 443035110#4 443035110#5 443035110#6"/>
    </vehicle>
    <vehicle id="D-38_Outbound_20250101_00.2" depart="12.26">
        <route edges="218448824#2 218448824#3 914904187 -522435822#10 218448824#5 239953386#0 -239953386#0 -417745005#2 -417745005#1 -417745005#0 -417745006#3 -417745006#2 -417745006#1 -417745006#0 -72465316#1 72465287#3 72465287#4 72465287#5 -72465270#0 72465301#4 72465301#5 72465301#6 72465301#7 417745006#0 417745006#1 417745006#2 417745006#3 -72465263 -194455703 194455703 -522435822#6 -522435822#5 -522435822#4 -522435822#3 -522435822#2 -72465312 -72465301#4 -72465301#3 -72465301#2 -72465301#1 -72465301#0 369687318#9 522435822#0 522435822#1 522435822#2 522435822#3 522435822#4 522435822#5 522435822#6 72465263 417745005#0 417745005#1 417745005#2 218448824#6 218448824#7 218448824#8 218448824#9 218448824#10 218448824#11 218448824#12 375049444#0 375049444#1 375049444#2 375049444#3 375049444#4 117795634#0 117795634#1 -117795640#3 130065866#2 130065866#3 375049444#6 -417927288#6 117795640#0 117795640#1 117795640#2 -130065866#1 -130065866#0 417927289#5 417927289#6 -117786467#3 -117786467#2 417927291#0 417927291#1 -117795636#1 -117795636#0 117795636#0 117795636#1 417927290#0 417927290#1 -417927290#1 -417927290#0 -417927291#1 -417927291#0 -117786467#1 -117786467#0 117795657#0 417927294#0 417927294#1 417927294#2 -218724604#0 218724604#0 218724604#1 -623719388#2 -623719388#1 623719388#1 -411552581 -404008685#0 411553135#0 -117823767#1 -117823767#0 417933654 -417933654 117823767#0 117823767#1 117823767#2 117823777#2 117823777#3 117823777#4 117823777#5 176732665#0 117823779 -117823779 -411553135#2 -411553135#1 411553135#1 -117823789#4 -117823789#3 117823789#3 117823789#4 117823789#5 117823789#6 -354725379#1 -354725379#0 -117823785#1 -117823785#0 -210332890#2 210332890#2 117823785#0 117823785#1 354725379#0 354725379#1 -117823789#6 -117823789#5 411553135#2 176732665#1 176732665#2 176732665#3 176732665#4 417933642#0 417933642#1 -117823785#6 -117823785#5 -176732663#1 -176732663#0 176732663#0 -176732664#4 -176732664#3 176732664#3 176732664#4 176732663#1 -117823785#4 -117823785#3 117823788#3 -117823788#3 -117823788#2 -117823788#1 -117823788#0 218864491#7 218864491#8 -210332891#1 -210332891#0 210332891#0 176732664#0 176732664#1 -417933657 117823785#2 117823785#3 117823785#4 -117823773#2 -117823773#1 -117823773#0 -176732665#1 -176732665#0 -117823777#5 -117823777#4 -117823777#3 -117823777#2 -117823767#2 -411553135#0 -354725380#1 -411553134 919983794#3 -919983794#3 -919983794#2 -404008685#1 411552581 623719388#2 919983794#0 919983794#1 919983794#2 411553134 -354725380#0 117823777#1 -117823777#1 -117823777#0 117823777#0 354725380#0 354725380#1 404008685#0 404008685#1 -411553137 -117795644#3 -117795644#2 117795650#4 919983794#4 411553136 404008684#2 -404008684#2 -404008684#1 -404008684#0 -210332890#1 -210332890#0 -802770127#3 -802770127#2 802770127#2 802770127#3 -919983794#5 -919983794#4"/>
    </vehicle>
    <vehicle id="D-42_Inbound_20250101_00.3" depart="12.41">
        <route edges="218864491#0 218864491#1 -417933642#3 -417933642#2 -417933642#1 -417933642#0 -379232161#1 -379232161#0 379232161#0 379232161#1 -176732665#4 -176732665#3 -176732665#2 117823773#0 117823773#1 117823773#2 117823785#5 117823785#6 417933642#2 417933642#3 417933642#4 375049565#9 375049565#10"/>
    </vehicle>
    <vehicle id="D-38_Inbound_20250101_00.2" depart="15.35">
        <route edges="522435830#0 417927281 -417927281 522435830#1 522435830#2 -522435825 522435826#0 117795656#0 117795656#1 -117795642#2 -117795642#1 -117795642#0 117795642#0 117795645#0 117795645#1 117795645#2 117795645#3 117795645#4 -117795657#2 117795657#2 -117795645#4 -117795645#3 -117795645#2 -117795645#1 -117795645#0 117795642#1 117795642#2 117795656#2 117795656#3 117795656#4 117795656#5 117795656#6 -117795657#0 117786467#0 117786467#1 -117786467#1 -117786467#0 117795657#0 417927294#0 417927294#1 417927294#2 -218724604#0 218724604#0 218724604#1 919983794#0 919983794#1 -411553137 -117795644#3 -117795644#2 117795644#2 117795644#3 411553137 -919983794#1 -919983794#0 -623719388#2 -623719388#1 -623719388#0 623719388#0 623719388#1 623719388#2 525738548#0 525738548#1 525738548#2 525738548#3 -117795636#2 417927290#0 417927290#1 435319059 -525738548#5 -525738548#4 -525738548#3 -525738548#2 -525738548#1 -525738548#0 -218724604#1"/>
    </vehicle>
    <vehicle id="D-42_Outbound_20250101_00.4" depart="15.58">
        <route edges="921219577#1 921219577#2 72465315#0 72465315#1 72465315#2 72465315#3 72465315#4 210328491#0 210328491#1 210328491#2 210328491#3 -72465246#4 -72465246#3 -72465246#2 -72465246#1 -72465246#0 72465246#0 72465246#1 73656407 72465261#0 72465261#1 72465261#2 72465261#3 72465265#8 72465265#9 -72465265#9 -72465265#8 72465261#4 72465261#5 72465261#6 72465248#1 -72465248#1 -72465248#0 72465314#0 72465314#1 908696520#12 417745011#0 417745011#1 417745011#2 417745011#3 417745011#4 417745011#5 417745011#6 417745011#7 417745011#8 -72465266#0 72465266#0 -417745011#8 -417745011#7 -417745011#6 -417745011#5 -417745011#4 -417745011#3 -417745011#2 -417745011#1 -417745011#0 -920625705 920625705 908696520#13 908696520#14 515476886#0 -417745005#1 72465290#0 72465287#0 72465287#1 72465287#2 -72465287#2 -72465287#1 -72465287#0 72465290#1 -72465260#6 -72465260#5 -72465260#4 -72465260#3 72465316#0 72465287#3 72465287#4 72465287#5 -72465270#0 72465301#4 72465301#5 72465301#6 72465301#7 -72465316#1 72465316#1 -72465301#7 -72465301#6 -72465301#5 72465312 522435822#2 522435822#3 522435822#4 522435822#5 522435822#6 522435822#7 522435822#8 -522435822#8 -522435822#7 -194455703 194455703 -522435822#6 -522435822#5 -522435822#4 -522435822#3 -522435822#2 -522435822#1 -522435822#0 -369687318#9 72465301#0 72465301#1 72465301#2 72465301#3 72465270#0 72465270#1 72465270#2 -72465270#2 -72465270#1 -72465287#5 -72465287#4 -72465287#3 -72465316#0 72465260#3 72465260#4 72465260#5 72465260#6 72465290#2 72465290#3 72465290#4 72465298#0 72465298#1 72465298#2 72465298#3 -417745013 72465265#0 72465265#1 72465265#2 72465265#3 72465265#4 72465265#5 72465265#6 72465265#7 -72465265#7 -72465265#6 -72465265#5 -72465265#4 -72465265#3 -72465265#2 -72465266#2 -72465298#6 -72465298#5 -72465298#4 72465298#4 72465298#5 72465298#6 -72465266#1 72465266#1 72465266#2 -72465265#1 -72465265#0 -72465291#2 -72465291#1 -72465291#0 72465291#0 72465291#1 72465291#2 417745013 -72465298#3 -72465298#2 -72465298#1 -72465298#0 72465259#0 72465259#1 -72465293#2 -72465293#1 -72465293#0 72465293#0 72465293#1 72465293#2 -72465259#1 -72465259#0"/>
    </vehicle>
    <vehicle id="D-42_Inbound_20250101_00.4" depart="16.55">