<?xml version='1.0' encoding='UTF-8'?>
<routes>
    <flow id="D-38_Inbound_20250101_00" from="522435830#0" to="515476886#3" begin="0" end="3600" number="234" />
    <flow id="D-38_Outbound_20250101_00" from="218448824#2" to="522435826#4" begin="0" end="3600" number="293" />
    <flow id="D-42_Inbound_20250101_00" from="218864491#0" to="921219576#4" begin="0" end="3600" number="435" />
    <flow id="D-42_Outbound_20250101_00" from="921219577#1" to="375049565#10" begin="0" end="3600" number="462" />
    <flow id="D-38_Inbound_20250101_01" from="522435830#0" to="515476886#3" begin="3600" end="7200" number="237" />
    <flow id="D-38_Outbound_20250101_01" from="218448824#2" to="522435826#4" begin="3600" end="7200" number="315" />
    <flow id="D-42_Inbound_20250101_01" from="218864491#0" to="921219576#4" begin="3600" end="7200" number="347" />
    <flow id="D-42_Outbound_20250101_01" from="921219577#1" to="375049565#10" begin="3600" end="7200" number="363" />
    <flow id="D-38_Inbound_20250101_02" from="522435830#0" to="515476886#3" begin="7200" end="10800" number="162" />
    <flow id="D-38_Outbound_20250101_02" from="218448824#2" to="522435826#4" begin="7200" end="10800" number="139" />
    <flow id="D-42_Inbound_20250101_02" from="218864491#0" to="921219576#4" begin="7200" end="10800" number="281" />
    <flow id="D-42_Outbound_20250101_02" from="921219577#1" to="375049565#10" begin="7200" end="10800" number="279" />
    <flow id="D-38_Inbound_20250101_03" from="522435830#0" to="515476886#3" begin="10800" end="14400" number="129" />
    <flow id="D-38_Outbound_20250101_03" from="218448824#2" to="522435826#4" begin="10800" end="14400" number="114" />
    <flow id="D-42_Inbound_20250101_03" from="218864491#0" to="921219576#4" begin="10800" end="14400" number="226" />
    <flow id="D-42_Outbound_20250101_03" from="921219577#1" to="375049565#10" begin="10800" end="14400" number="223" />
    <flow id="D-38_Inbound_20250101_04" from="522435830#0" to="515476886#3" begin="14400" end="18000" number="124" />
    <flow id="D-38_Outbound_20250101_04" from="218448824#2" to="522435826#4" begin="14400" end="18000" number="104" />
    <flow id="D-42_Inbound_20250101_04" from="218864491#0" to="921219576#4" begin="14400" end="18000" number="167" />
    <flow id="D-42_Outbound_20250101_04" from="921219577#1" to="375049565#10" begin="14400" end="18000" number="196" />
    <flow id="D-38_Inbound_20250101_05" from="522435830#0" to="515476886#3" begin="18000" end="21600" number="137" />
    <flow id="D-38_Outbound_20250101_05" from="218448824#2" to="522435826#4" begin="18000" end="21600" number="122" />
    <flow id="D-42_Inbound_20250101_05" from="218864491#0" to="921219576#4" begin="18000" end="21600" number="154" />
    <flow id="D-42_Outbound_20250101_05" from="921219577#1" to="375049565#10" begin="18000" end="21600" number="188" />
    <flow id="D-38_Inbound_20250101_06" from="522435830#0" to="515476886#3" begin="21600" end="25200" number="163" />
    <flow id="D-38_Outbound_20250101_06" from="218448824#2" to="522435826#4" begin="21600" end="25200" number="121" />
    <flow id="D-42_Inbound_20250101_06" from="218864491#0" to="921219576#4" begin="21600" end="25200" number="170" />
    <flow id="D-42_Outbound_20250101_06" from="921219577#1" to="375049565#10" begin="21600" end="25200" number="205" />
    <flow id="D-38_Inbound_20250101_07" from="522435830#0" to="515476886#3" begin="25200" end="28800" number="232" />
    <flow id="D-38_Outbound_20250101_07" from="218448824#2" to="522435826#4" begin="25200" end="28800" number="180" />
    <flow id="D-42_Inbound_20250101_07" from="218864491#0" to="921219576#4" begin="25200" end="28800" number="216" />
    <flow id="D-42_Outbound_20250101_07" from="921219577#1" to="375049565#10" begin="25200" end="28800" number="237" />
    <flow id="D-38_Inbound_20250101_08" from="522435830#0" to="515476886#3" begin="28800" end="32400" number="355" />
    <flow id="D-38_Outbound_20250101_08" from="218448824#2" to="522435826#4" begin="28800" end="32400" number="315" />
    <flow id="D-42_Inbound_20250101_08" from="218864491#0" to="921219576#4" begin="28800" end="32400" number="242" />
    <flow id="D-42_Outbound_20250101_08" from="921219577#1" to="375049565#10" begin="28800" end="32400" number="370" />
    <flow id="D-38_Inbound_20250101_09" from="522435830#0" to="515476886#3" begin="32400" end="36000" number="480" />
    <flow id="D-38_Outbound_20250101_09" from="218448824#2" to="522435826#4" begin="32400" end="36000" number="338" />
    <flow id="D-42_Inbound_20250101_09" from="218864491#0" to="921219576#4" begin="32400" end="36000" number="294" />
    <flow id="D-42_Outbound_20250101_09" from="921219577#1" to="375049565#10" begin="32400" end="36000" number="429" />
    <flow id="D-38_Inbound_20250101_10" from="522435830#0" to="515476886#3" begin="36000" end="39600" number="545" />
    <flow id="D-38_Outbound_20250101_10" from="218448824#2" to="522435826#4" begin="36000" end="39600" number="433" />
    <flow id="D-42_Inbound_20250101_10" from="218864491#0" to="921219576#4" begin="36000" end="39600" number="344" />
    <flow id="D-42_Outbound_20250101_10" from="921219577#1" to="375049565#10" begin="36000" end="39600" number="504" />
    <flow id="D-38_Inbound_20250101_11" from="522435830#0" to="515476886#3" begin="39600" end="43200" number="707" />
    <flow id="D-38_Outbound_20250101_11" from="218448824#2" to="522435826#4" begin="39600" end="43200" number="504" />
    <flow id="D-42_Inbound_20250101_11" from="218864491#0" to="921219576#4" begin="39600" end="43200" number="409" />
    <flow id="D-42_Outbound_20250101_11" from="921219577#1" to="375049565#10" begin="39600" end="43200" number="568" />
    <flow id="D-38_Inbound_20250101_12" from="522435830#0" to="515476886#3" begin="43200" end="46800" number="655" />
    <flow id="D-38_Outbound_20250101_12" from="218448824#2" to="522435826#4" begin="43200" end="46800" number="550" />
    <flow id="D-42_Inbound_20250101_12" from="218864491#0" to="921219576#4" begin="43200" end="46800" number="451" />
    <flow id="D-42_Outbound_20250101_12" from="921219577#1" to="375049565#10" begin="43200" end="46800" number="558" />
    <flow id="D-38_Inbound_20250101_13" from="522435830#0" to="515476886#3" begin="46800" end="50400" number="685" />
    <flow id="D-38_Outbound_20250101_13" from="218448824#2" to="522435826#4" begin="46800" end="50400" number="521" />
    <flow id="D-42_Inbound_20250101_13" from="218864491#0" to="921219576#4" begin="46800" end="50400" number="475" />
    <flow id="D-42_Outbound_20250101_13" from="921219577#1" to="375049565#10" begin="46800" end="50400" number="626" />
    <flow id="D-38_Inbound_20250101_14" from="522435830#0" to="515476886#3" begin="50400" end="54000" number="664" />
    <flow id="D-38_Outbound_20250101_14" from="218448824#2" to="522435826#4" begin="50400" end="54000" number="493" />
    <flow id="D-42_Inbound_20250101_14" from="218864491#0" to="921219576#4" begin="50400" end="54000" number="445" />
    <flow id="D-42_Outbound_20250101_14" from="921219577#1" to="375049565#10" begin="50400" end="54000" number="634" />
    <flow id="D-38_Inbound_20250101_15" from="522435830#0" to="515476886#3" begin="54000" end="57600" number="708" />
    <flow id="D-38_Outbound_20250101_15" from="218448824#2" to="522435826#4" begin="54000" end="57600" number="472" />
    <flow id="D-42_Inbound_20250101_15" from="218864491#0" to="921219576#4" begin="54000" end="57600" number="456" />
    <flow id="D-42_Outbound_20250101_15" from="921219577#1" to="375049565#10" begin="54000" end="57600" number="630" />
    <flow id="D-38_Inbound_20250101_16" from="522435830#0" to="515476886#3" begin="57600" end="61200" number="704" />
    <flow id="D-38_Outbound_20250101_16" from="218448824#2" to="522435826#4" begin="57600" end="61200" number="502" />
    <flow id="D-42_Inbound_20250101_16" from="218864491#0" to="921219576#4" begin="57600" end="61200" number="412" />
    <flow id="D-42_Outbound_20250101_16" from="921219577#1" to="375049565#10" begin="57600" end="61200" number="661" />
    <flow id="D-38_Inbound_20250101_17" from="522435830#0" to="515476886#3" begin="61200" end="64800" number="712" />
    <flow id="D-38_Outbound_20250101_17" from="218448824#2" to="522435826#4" begin="61200" end="64800" number="472" />
    <flow id="D-42_Inbound_20250101_17" from="218864491#0" to="921219576#4" begin="61200" end="64800" number="472" />
    <flow id="D-42_Outbound_20250101_17" from="921219577#1" to="375049565#10" begin="61200" end="64800" number="686" />
    <flow id="D-38_Inbound_20250101_18" from="522435830#0" to="515476886#3" begin="64800" end="68400" number="632" />
    <flow id="D-38_Outbound_20250101_18" from="218448824#2" to="522435826#4" begin="64800" end="68400" number="436" />
    <flow id="D-42_Inbound_20250101_18" from="218864491#0" to="921219576#4" begin="64800" end="68400" number="405" />
    <flow id="D-42_Outbound_20250101_18" from="921219577#1" to="375049565#10" begin="64800" end="68400" number="596" />
    <flow id="D-38_Inbound_20250101_19" from="522435830#0" to="515476886#3" begin="68400" end="72000" number="528" />
    <flow id="D-38_Outbound_20250101_19" from="218448824#2" to="522435826#4" begin="68400" end="72000" number="357" />
    <flow id="D-42_Inbound_20250101_19" from="218864491#0" to="921219576#4" begin="68400" end="72000" number="366" />
    <flow id="D-42_Outbound_20250101_19" from="921219577#1" to="375049565#10" begin="68400" end="72000" number="570" />
    <flow id="D-38_Inbound_20250101_20" from="522435830#0" to="515476886#3" begin="72000" end="75600" number="478" />
    <flow id="D-38_Outbound_20250101_20" from="218448824#2" to="522435826#4" begin="72000" end="75600" number="354" />
    <flow id="D-42_Inbound_20250101_20" from="218864491#0" to="921219576#4" begin="72000" end="75600" number="346" />
    <flow id="D-42_Outbound_20250101_20" from="921219577#1" to="375049565#10" begin="72000" end="75600" number="523" />
    <flow id="D-38_Inbound_20250101_21" from="522435830#0" to="515476886#3" begin="75600" end="79200" number="446" />
    <flow id="D-38_Outbound_20250101_21" from="218448824#2" to="522435826#4" begin="75600" end="79200" number="390" />
    <flow id="D-42_Inbound_20250101_21" from="218864491#0" to="921219576#4" begin="75600" end="79200" number="358" />
    <flow id="D-42_Outbound_20250101_21" from="921219577#1" to="375049565#10" begin="75600" end="79200" number="510" />
    <flow id="D-38_Inbound_20250101_22" from="522435830#0" to="515476886#3" begin="79200" end="82800" number="320" />
    <flow id="D-38_Outbound_20250101_22" from="218448824#2" to="522435826#4" begin="79200" end="82800" number="353" />
    <flow id="D-42_Inbound_20250101_22" from="218864491#0" to="921219576#4" begin="79200" end="82800" number="342" />
    <flow id="D-42_Outbound_20250101_22" from="921219577#1" to="375049565#10" begin="79200" end="82800" number="488" />
    <flow id="D-38_Inbound_20250101_23" from="522435830#0" to="515476886#3" begin="82800" end="86400" number="199" />
    <flow id="D-38_Outbound_20250101_23" from="218448824#2" to="522435826#4" begin="82800" end="86400" number="177" />
    <flow id="D-42_Inbound_20250101_23" from="218864491#0" to="921219576#4" begin="82800" end="86400" number="244" />
    <flow id="D-42_Outbound_20250101_23" from="921219577#1" to="375049565#10" begin="82800" end="86400" number="350" />
</routes>