<?xml version="1.0" encoding="UTF-8"?>

<!-- generated on 2025-11-25 15:58:51 by Eclipse SUMO jtrrouter Version 1.24.0
<jtrrouterConfiguration xmlns:xsi="http://www.w3.org/2001/XMLSchema-instance" xsi:noNamespaceSchemaLocation="http://sumo.dlr.de/xsd/jtrrouterConfiguration.xsd">

    <input>
        <net-file value="gangnam_int.net.xml"/>
        <route-files value="gangnam_int.rou.xml"/>
    </input>

    <output>
        <output-file value="gangnam_int_with_turns2.rou.xml"/>
    </output>

    <processing>
        <turn-defaults value="20,60,20"/>
    </processing>

</jtrrouterConfiguration>
-->

<routes xmlns:xsi="http://www.w3.org/2001/XMLSchema-instance" xsi:noNamespaceSchemaLocation="http://sumo.dlr.de/xsd/routes_file.xsd">
    <vehicle id="D-38_Inbound_20250101_00.10" depart="76.75">
        <route edges="522435830#0 522435830#1 522435830#2 -522435825 522435826#0 117795656#0 117795656#1 -117795642#2 -117795632#1 -117795632#0 117795632#0 117795632#1 -117795642#1 -117795642#0 117795642#0 117795642#1 117795642#2 117795656#2 117795656#3 117795656#4 117795656#5 117795656#6 417927294#0 417927294#1 417927294#2 218724604#1 919983794#0 919983794#1 919983794#2 919983794#3 -919983794#3 -919983794#2 -919983794#1 -919983794#0 525738548#0 525738548#1 525738548#2 117786467#0 117786467#1 417927291#0 417927291#1 417927290#0 417927290#1 435319059 -525738548#5 -525738548#4 -525738548#3 117795657#0 117795657#1 -117795657#1 -117795657#0 525738548#3 525738548#4 525738548#5 522435825 908696520#0 908696520#1 130065880#0 130065880#1 130065880#2 130065881#0 130065881#1 -72509419#1 -72509419#0 72509419#0 72509419#1 72509419#2 72509419#3 -435319066 435319067 435319068 -130065880#2 -130065880#1 -130065880#0 908696520#2 908696520#3 908696520#4 908696520#5 908696520#6 908696520#8 908696520#9 908696520#10 908696520#11 908696520#12 908696520#13 908696520#14 515476886#0 515476886#1 515476886#2 522435822#9 -522435822#9 515476886#3"/>
    </vehicle>
    <vehicle id="D-38_Inbound_20250101_00.12" depart="92.10">
        <route edges="522435830#0 522435830#1 522435830#2 908696520#0 908696520#1 908696520#2 908696520#3 908696520#4 908696520#5 908696520#6 908696520#8 908696520#9 908696520#10 908696520#11 908696520#12 908696520#13 908696520#14 515476886#0 515476886#1 914909449 -522435822#7 -522435822#6 -522435822#5 -522435822#4 -522435822#3 -522435822#2 -522435822#1 -522435822#0 -369687318#9 72465301#0 72465301#1 72465301#2 72465301#3 72465301#4 72465312 522435822#2 522435822#3 522435822#4 522435822#5 522435822#6 522435822#7 522435822#8 515476886#3"/>
    </vehicle>
    <vehicle id="D-38_Outbound_20250101_00.17" depart="104.24">
        <route edges="218448824#2 218448824#3 218448824#4 218448824#5 218448824#6 218448824#7 392691741#0 -392691742#3 392691742#3 -392691741#0 218448824#8 218448824#9 -210334209#3 -210334209#2 -210334209#1 -210334209#0 210334209#0 210334209#1 210334209#2 210334209#3 218448824#10 218448824#11 218448824#12 375049444#0 375049444#1 375049444#2 375049444#3 375049444#4 375049444#5 375049444#6 -417927288#6 -417927288#5 -417927288#4 117795636#0 117795636#1 417927290#0 417927290#1 435319059 522435826#0 522435826#1 522435826#2 522435826#3 -417927300 -117795642#0 117795642#0 117795645#0 117795645#1 117795645#2 117795645#3 117795645#4 -117795657#2 -117795657#1 117795657#1 117795657#2 -117795645#4 -117795645#3 -117795645#2 -117795645#1 -117795645#0 417927300 522435826#4"/>
    </vehicle>
    <vehicle id="D-42_Outbound_20250101_00.29" depart="112.98">
        <route edges="921219577#1 921219577#2 72465315#0 72465315#1 72465315#2 72465315#3 72465315#4 -72465315#4 -72465315#3 -72465315#2 -72465315#1 -72465315#0 921219577#3 72465246#0 72465246#1 73656407 72465261#0 72465261#1 72465261#2 -72465261#2 -72465261#1 -72465261#0 -73656407 -72465246#1 -72465246#0 921219577#4 443035112#0 -72465265#9 -72465265#8 -72465265#7 -72465265#6 -72465265#5 -72465265#4 -72465265#3 -72465265#2 72465265#2 72465265#3 72465265#4 72465265#5 72465265#6 72465265#7 72465261#4 -72465261#4 72465265#8 72465265#9 443035112#1 -72465268#1 72465268#1 443035112#2 -72465248#1 -72465248#0 72465266#0 -72465266#0 72465248#0 -72465261#6 -805827667 805827667 -72465261#5 72465261#5 72465261#6 72465248#1 443035112#3 443035112#4 443035112#5 443035112#6 919983795#0 919983795#1 919983795#2 210334210#0 210334210#1 186014485 -239953210#3 -239953210#2 -239953210#1 -239953210#0 239953210#0 239953210#1 239953210#2 239953210#3 239953210#4 239953210#5 239953210#6 239953210#7 417746809#0 -392691741#4 -392691741#3 -392691741#2 -392691741#1 392691741#1 392691741#2 392691741#3 392691741#4 -417746809#0 117786468#0 117786468#1 117786468#2 117786468#3 117786468#4 -117786468#4 -117786468#3 -117786468#2 -117786468#1 -117786468#0 239953383#0 117786462#0 117786462#1 -117786462#1 -117786462#0 239953383#1 239953382 392691744#7 392691744#8 -417746801 -239954367#3 -239954367#2 -239954367#1 239954367#1 239954367#2 417750356#0 -117790055#3 -117790055#2 -117790055#1 -117790055#0 -117790048#0 417750341#0 417750341#1 -239953789 -239953791#1 -239953791#0 417746802#6 -417746802#6 239953791#0 239953791#1 239953791#2 239953791#3 417750348#0 239954001 802770122#1 239953385#1 239953385#2 239953385#3 239953385#4 -210332897#1 -210332897#0 210332897#0 210332897#1 210332897#2 210332897#3 210332897#4 -417750356#5 239953380#0 117790053#0 117790053#1 -417746802#2 -417746802#1 417746802#1 417746802#2 -117790053#1 -117790053#0 -239953380#0 -417750356#4 -417750356#3 -417750356#2 -417746802#0 525738547#2 -525738547#2 -525738547#1 -525738547#0 -921278928 -921278930#1 -921278930#0 375049565#0 375049565#1 375049565#2 375049565#3 -239953388 239953388 375049565#4 -417750348#2 -417750348#1 -417750348#0 -239953380#5 239953380#5 -239953791#3 -239953791#2 239953789 417750350#0 417750350#1 -117790039#4 -117790039#3 -117790039#2 -117790039#1 -117790039#0 375049565#7 375049565#8 375049565#9 375049565#10"/>
    </vehicle>
    <vehicle id="D-42_Inbound_20250101_00.28" depart="115.84">
        <route edges="218864491#0 218864491#1 218864491#2 218864491#3 218864491#4 176732663#0 176732663#1 -117823773#2 -117823773#1 -117823773#0 176732665#2 176732665#3 176732665#4 -37403040 37403040 417933642#0 417933642#1 417933642#2 417933642#3 417933642#4 -417933642#4 -417933642#3 -417933642#2 -117823785#6 -117823785#5 117823785#5 117823785#6 -417933642#1 -417933642#0 -176732665#4 -176732665#3 -176732665#2 -176732665#1 -176732665#0 -117823788#3 117823785#3 117823785#4 -176732663#1 -176732663#0 218864491#5 218864491#6 117823788#0 -117823788#0 218864491#7 218864491#8 218864491#9 218864491#10 218864491#11 919983793#0 919983793#1 919983793#2 919983793#3 417927289#0 417927289#1 417927289#2 -417927289#2 -417927289#1 -417927289#0 919983793#4 919983793#5 -117795635#4 -117795635#3 -117795635#2 -117795635#1 -1422793293#1 -1422793293#0 375049444#4 117795634#0 117795634#1 -117795640#3 -117795640#2 -117795640#1 -117795640#0 -417927288#5 -417927288#4 117795636#0 117795636#1 417927290#0 417927290#1 -417927290#1 -417927290#0 -417927291#1 -417927291#0 -417927293#1 -417927293#0 417927293#0 417927293#1 417927291#0 417927291#1 117795636#2 -525738548#3 117795657#0 117795657#1 -117795632#9 -117795632#8 -117795632#7 -117795632#6 -117795632#5 -117795632#4 -117795632#3 -117795632#2 117795632#2 117795632#3 117795632#4 117795632#5 117795632#6 117795632#7 117795632#8 117795632#9 -117795657#1 -117795657#0 -525738548#2 -525738548#1 -525738548#0 525738548#0 -117795644#5 -117795644#4 417927292#0 417927292#1 -117795648#3 -117795648#2 -117795648#1 -417929408#1 -417929408#0 130065866#0 130065866#1 -130065866#1 -130065866#0 -417927289#4 -417927289#3 210332894#0 210332894#1 117795648#0 -117795648#0 -210332894#1 -210332894#0 -117795634#4 -117795634#3 117795635#0 117795635#1 1304593489#0 1304593489#1 1304593489#2 1304593489#3 210332892#3 -210332894#2 210332894#2 802770127#0 802770127#1 802770127#2 802770127#3 -802770127#3 -802770127#2 -802770127#1 -802770127#0 -210332892#3 -1304593489#3 -1304593489#2 -1304593489#1 -1304593489#0 117795635#2 117795635#3 117795635#4 919983793#6 919983793#7 919983793#8 375049445#1 375049445#2 375049445#3 -130065883#2 -130065883#1 130065883#1 130065883#2 375049445#4 375049445#5 72509419#0 72509419#1 -72509419#1 -72509419#0 375049445#6 921219576#0 921219576#1 921219576#2 -417920132#4 -417920132#3 -417920132#2 -417920132#1 -417920132#0 417920135#0 417920135#1 -78061501#3 -78061501#2 -78061501#1 -78061501#0 78061501#0 78061501#1 78061501#2 78061501#3 417920135#2 417920135#3 -417920135#3 -417920135#2 -417920135#1 -417920135#0 417920132#0 417920132#1 417920132#2 417920132#3 417920132#4 921219576#3 921219576#4"/>
    </vehicle>
    <vehicle id="D-42_Inbound_20250101_00.39" depart="161.34">
        <route edges="218864491#0 218864491#1 218864491#2 218864491#3 218864491#4 176732663#0 -176732664#4 -176732664#3 -176732664#2 -176732664#1 -176732664#0 210332891#1 218864491#9 921656457 375049565#1 375049565#2 375049565#3 375049565#4 -417750348#2 -417750348#1 417750348#1 239953385#0 239953385#1 239953388 -239953388 239953385#2 239953385#3 239953385#4 210332897#2 210332897#3 239953379 -802770126 417750359 239953790 239953380#5 417750348#0 239954001 -239954001 -417750348#0 -239953380#5 -239953380#4 -239953380#3 239953792#0 239953792#1 -239953792#1 -239953792#0 -239953380#2 -239953380#1 117790053#0 117790053#1 -117790053#1 -117790053#0 -239953380#0 -417750356#4 -417750356#3 -417750356#2 417746802#1 417746802#2 417746802#3 417746802#4 417746802#5 117790054 -117790060#3 117790040 -117790040 -117790060#2 -117790060#1 -117790060#0 -117790048#3 117790035 -117790035 -117790048#2 117790048#2 117790048#3 239954369#0 239954369#1 -239954365#4 -239954365#3 -239954366#2 802882395 239954367#1 239954367#2 417750356#0 -417750356#0 -239954371#2 -239954371#1 239954366#0 239954366#1 239954366#2 -239954365#2 -239954365#1 239954365#1 239954365#2 239954365#3 239954365#4 239954365#5 -239954365#5 -239954369#1 -239954369#0 117790060#0 117790060#1 117790060#2 117790060#3 -117790055#0 -117790048#0 417750341#0 417750341#1 -239953789 -239953791#1 -239953791#0 239953791#0 239953791#1 239953791#2 239953791#3 -239953791#3 -239953791#2 239953789 -417750341#1 -417750341#0 -417750340 417750340 117790048#0 117790048#1 -117790048#1 117790055#0 117790055#1 117790055#2 -117790055#2 -117790055#1 -117790054 417746802#6 -417746802#6 -417746802#5 -417746802#4 -417746802#3 -417746802#2 -417746802#1 -417746802#0 525738547#2 525738547#3 525738547#4 -117790044#6 117790044#6 -417746803#1 -417746803#0 239953463#6 -239953463#6 -239953463#5 -239953464#6 -239953464#5 -239953464#4 -239953464#3 -239953464#2 -239953464#1 -239953464#0 239953464#0 417746820#1 417746820#2 -392691744#1 -392691744#0 -392691742#2 -392691742#1 392691742#1 117786463#1 117786463#2 -417746820#1 239953464#1 239953464#2 239953464#3 239953464#4 239953464#5 239953464#6 -239953463#4 -117786463#13 -117786463#12 -117786463#11 -117786463#10 -117786463#9 -117786463#8 -117786463#7 -117786463#6 -117786463#5 -117786463#4 -417746809#2 392691744#3 392691744#4 392691744#5 392691744#6 392691744#7 392691744#8 -239953463#2 -239953463#1 -239953463#0 239953463#0 239953463#1 239953463#2 -392691744#8 -392691744#7 -392691744#6 -392691744#5 -392691744#4 -392691744#3 -392691744#2 392691744#2 -417746809#1 -392691741#4 -392691741#3 -392691741#2 -392691741#1 -392691741#0 218448824#8 218448824#9 -210334209#3 -210334209#2 -210334209#1 -210334209#0 -210334210#2 -210334210#1 -210334210#0 210334210#0 210334210#1 186014485 -239953210#3 -239953210#2 -239953210#1 -239953210#0 919983795#4 919983795#5 919983795#6 921659599 919983793#1 210332892#0 210332892#1 210332892#2 -1304593489#3 -1304593489#2 -417927289#1 -417927289#0 417927289#0 417927289#1 -1304593489#1 -1304593489#0 -117795635#1 -117795635#0 -117795634#2 117795634#2 117795634#3 117795634#4 210332894#0 210332894#1 -210332894#1 -210332894#0 -117795634#4 -117795634#3 117795635#0 -1422793293#1 -1422793293#0 375049444#4 117795634#0 117795634#1 -117795634#1 -117795634#0 375049444#5 -130065866#3 -130065866#2 -117795640#2 -117795640#1 -117795640#0 417927288#6 -417927288#6 -417927288#5 -417927288#4 417927288#4 417927288#5 117795640#0 117795640#1 117795640#2 -130065866#1 -130065866#0 417929408#0 417929408#1 417929408#2 417929408#3 117795644#1 -117795644#1 -117795644#0 802770127#2 802770127#3 -919983794#5 -919983794#4 -919983794#3 411553134 -411553134 919983794#3 117823777#0 -117823777#0 919983794#4 411553136 404008684#2 -404008684#2 -404008684#1 -404008684#0 210332890#2 117823785#0 117823785#1 354725379#0 354725379#1 117823777#4 117823777#5 -117823788#3 -117823785#2 417933657 176732664#2 117823788#1 117823788#2 -117823788#2 -117823788#1 176732664#3 176732664#4 -176732663#0 218864491#5 218864491#6 117823788#0 -117823788#0 218864491#7 218864491#8 -210332891#1 -210332891#0 -210332890#2 -210332890#1 -210332890#0 210332890#0 210332890#1 404008684#0 404008684#1 -411553136 919983794#5 -802770127#3 -802770127#2 -802770127#1 -802770127#0 -210332892#3 -210332892#2 -210332892#1 -210332892#0 919983793#2 919983793#3 919983793#4 919983793#5 -117795635#4 -117795635#3 -117795635#2 117795635#2 117795635#3 117795635#4 919983793#6 919983793#7 919983793#8 375049445#1 375049445#2 375049445#3 375049445#4 375049445#5 375049445#6 -522435823#6 -522435823#5 -522435823#4 -522435823#3 61308649#0 61308649#1 61308649#2 61308649#3 -78061509#2 -78061509#1 -78061509#0 921219576#1 921219576#2 921219576#3 78061501#0 78061501#1 78061501#2 78061501#3 78061501#4 -805307889 443035110#3 -805307890 805307890 443035110#4 -522435824#9 -522435824#8 -522435824#7 522435824#7 522435824#8 -417920159 906148140#0 906148140#1 906148140#2 906148140#3 906148140#4 906148140#5 417920131#0 417920131#1 417920131#2 417920131#3 -906148142 -522435824#0 -522435831#3 -522435831#2 -417923174 -130065874#2 130065874#2 417923175#0 -417923175#0 -130065867#3 417927284 -417927284 130065867#3 417923174 522435831#2 522435831#3 522435823#0 -522435823#0 -377944995#7 31755396#0 31755396#1 31755396#2 31733644 417916135#0 -31755407#2 -31755407#1 -31755407#0 -377944995#2 -377944995#1 -377944995#0 -443037578#2 -443037578#1 -443037578#0 443037578#0 443037578#1 443037578#2 -560325554#2 -560325554#1 -560325554#0 560325554#0 560325554#1 560325554#2 377944995#0 377944995#1 377944995#2 31755407#0 31755407#1 31755407#2 -417916135#0 -31735618#3 -31735618#2 -31735618#1 -31735618#0 -377944995#5 -377944995#4 -377944995#3 -417923183#1 130065869#0 130065869#1 -130065869#1 -130065869#0 417923183#1 377944995#3 377944995#4 377944995#5 377944995#6 377944995#7 522435824#0 522435824#1 522435824#2 522435824#3 805307891#0 805307891#1 78061510#0 78061510#1 -78061511#5 -78061511#4 -78061511#3 -78061511#2 -78061511#1 -78061511#0 78061511#0 78061511#1 78061511#2 78061511#3 78061511#4 78061511#5 417920134#0 417920134#1 417920134#2 417920134#3 417920134#4 417920134#5 417920134#6 417920134#7 417920134#8 417920134#9 417920134#10 417920134#11 -522435823#1 522435823#1 522435823#2 -72509418 -435319066 435319066 -72509419#3 -72509419#2 72509419#2 72509419#3 72509418 522435823#3 522435823#4 522435823#5 522435823#6 -627582868 627582868 921219576#0 78061509#0 78061509#1 78061509#2 78061509#3 417920153#0 417920153#1 417920153#2 417920133#3 417920133#4 417920133#5 417920133#6 78061500#0 78061500#1 78061500#2 78061500#3 78061500#4 78061500#5 78061500#6 78061500#7 78061500#8 78061500#9 -417920139#2 -417920139#1 -417920139#0 -78061501#4 -78061501#3 -78061501#2 -78061501#1 -78061501#0 921219576#4"/>
    </vehicle>
</routes>
