<routes>
    <flow id="D-38_Inbound_20250101_00" from="522435830#0" to="515476886#3" begin="0" end="3600" number="469" />
    <flow id="D-38_Outbound_20250101_00" from="218448824#2" to="522435826#4" begin="0" end="3600" number="587" />
    <flow id="D-42_Inbound_20250101_00" from="218864491#0" to="921219576#4" begin="0" end="3600" number="870" />
    <flow id="D-42_Outbound_20250101_00" from="921219577#1" to="375049565#10" begin="0" end="3600" number="924" />
    <flow id="D-38_Inbound_20250101_01" from="522435830#0" to="515476886#3" begin="3600" end="7200" number="475" />
    <flow id="D-38_Outbound_20250101_01" from="218448824#2" to="522435826#4" begin="3600" end="7200" number="631" />
    <flow id="D-42_Inbound_20250101_01" from="218864491#0" to="921219576#4" begin="3600" end="7200" number="694" />
    <flow id="D-42_Outbound_20250101_01" from="921219577#1" to="375049565#10" begin="3600" end="7200" number="726" />
    <flow id="D-38_Inbound_20250101_02" from="522435830#0" to="515476886#3" begin="7200" end="10800" number="325" />
    <flow id="D-38_Outbound_20250101_02" from="218448824#2" to="522435826#4" begin="7200" end="10800" number="279" />
    <flow id="D-42_Inbound_20250101_02" from="218864491#0" to="921219576#4" begin="7200" end="10800" number="563" />
    <flow id="D-42_Outbound_20250101_02" from="921219577#1" to="375049565#10" begin="7200" end="10800" number="558" />
    <flow id="D-38_Inbound_20250101_03" from="522435830#0" to="515476886#3" begin="10800" end="14400" number="258" />
    <flow id="D-38_Outbound_20250101_03" from="218448824#2" to="522435826#4" begin="10800" end="14400" number="228" />
    <flow id="D-42_Inbound_20250101_03" from="218864491#0" to="921219576#4" begin="10800" end="14400" number="452" />
    <flow id="D-42_Outbound_20250101_03" from="921219577#1" to="375049565#10" begin="10800" end="14400" number="446" />
    <flow id="D-38_Inbound_20250101_04" from="522435830#0" to="515476886#3" begin="14400" end="18000" number="248" />
    <flow id="D-38_Outbound_20250101_04" from="218448824#2" to="522435826#4" begin="14400" end="18000" number="208" />
    <flow id="D-42_Inbound_20250101_04" from="218864491#0" to="921219576#4" begin="14400" end="18000" number="335" />
    <flow id="D-42_Outbound_20250101_04" from="921219577#1" to="375049565#10" begin="14400" end="18000" number="393" />
    <flow id="D-38_Inbound_20250101_05" from="522435830#0" to="515476886#3" begin="18000" end="21600" number="274" />
    <flow id="D-38_Outbound_20250101_05" from="218448824#2" to="522435826#4" begin="18000" end="21600" number="244" />
    <flow id="D-42_Inbound_20250101_05" from="218864491#0" to="921219576#4" begin="18000" end="21600" number="308" />
    <flow id="D-42_Outbound_20250101_05" from="921219577#1" to="375049565#10" begin="18000" end="21600" number="376" />
    <flow id="D-38_Inbound_20250101_06" from="522435830#0" to="515476886#3" begin="21600" end="25200" number="327" />
    <flow id="D-38_Outbound_20250101_06" from="218448824#2" to="522435826#4" begin="21600" end="25200" number="242" />
    <flow id="D-42_Inbound_20250101_06" from="218864491#0" to="921219576#4" begin="21600" end="25200" number="341" />
    <flow id="D-42_Outbound_20250101_06" from="921219577#1" to="375049565#10" begin="21600" end="25200" number="411" />
    <flow id="D-38_Inbound_20250101_07" from="522435830#0" to="515476886#3" begin="25200" end="28800" number="464" />
    <flow id="D-38_Outbound_20250101_07" from="218448824#2" to="522435826#4" begin="25200" end="28800" number="360" />
    <flow id="D-42_Inbound_20250101_07" from="218864491#0" to="921219576#4" begin="25200" end="28800" number="433" />
    <flow id="D-42_Outbound_20250101_07" from="921219577#1" to="375049565#10" begin="25200" end="28800" number="474" />
    <flow id="D-38_Inbound_20250101_08" from="522435830#0" to="515476886#3" begin="28800" end="32400" number="711" />
    <flow id="D-38_Outbound_20250101_08" from="218448824#2" to="522435826#4" begin="28800" end="32400" number="631" />
    <flow id="D-42_Inbound_20250101_08" from="218864491#0" to="921219576#4" begin="28800" end="32400" number="484" />
    <flow id="D-42_Outbound_20250101_08" from="921219577#1" to="375049565#10" begin="28800" end="32400" number="741" />
    <flow id="D-38_Inbound_20250101_09" from="522435830#0" to="515476886#3" begin="32400" end="36000" number="960" />
    <flow id="D-38_Outbound_20250101_09" from="218448824#2" to="522435826#4" begin="32400" end="36000" number="677" />
    <flow id="D-42_Inbound_20250101_09" from="218864491#0" to="921219576#4" begin="32400" end="36000" number="589" />
    <flow id="D-42_Outbound_20250101_09" from="921219577#1" to="375049565#10" begin="32400" end="36000" number="859" />
    <flow id="D-38_Inbound_20250101_10" from="522435830#0" to="515476886#3" begin="36000" end="39600" number="1091" />
    <flow id="D-38_Outbound_20250101_10" from="218448824#2" to="522435826#4" begin="36000" end="39600" number="866" />
    <flow id="D-42_Inbound_20250101_10" from="218864491#0" to="921219576#4" begin="36000" end="39600" number="688" />
    <flow id="D-42_Outbound_20250101_10" from="921219577#1" to="375049565#10" begin="36000" end="39600" number="1008" />
    <flow id="D-38_Inbound_20250101_11" from="522435830#0" to="515476886#3" begin="39600" end="43200" number="1415" />
    <flow id="D-38_Outbound_20250101_11" from="218448824#2" to="522435826#4" begin="39600" end="43200" number="1008" />
    <flow id="D-42_Inbound_20250101_11" from="218864491#0" to="921219576#4" begin="39600" end="43200" number="818" />
    <flow id="D-42_Outbound_20250101_11" from="921219577#1" to="375049565#10" begin="39600" end="43200" number="1136" />
    <flow id="D-38_Inbound_20250101_12" from="522435830#0" to="515476886#3" begin="43200" end="46800" number="1310" />
    <flow id="D-38_Outbound_20250101_12" from="218448824#2" to="522435826#4" begin="43200" end="46800" number="1100" />
    <flow id="D-42_Inbound_20250101_12" from="218864491#0" to="921219576#4" begin="43200" end="46800" number="902" />
    <flow id="D-42_Outbound_20250101_12" from="921219577#1" to="375049565#10" begin="43200" end="46800" number="1117" />
    <flow id="D-38_Inbound_20250101_13" from="522435830#0" to="515476886#3" begin="46800" end="50400" number="1371" />
    <flow id="D-38_Outbound_20250101_13" from="218448824#2" to="522435826#4" begin="46800" end="50400" number="1042" />
    <flow id="D-42_Inbound_20250101_13" from="218864491#0" to="921219576#4" begin="46800" end="50400" number="951" />
    <flow id="D-42_Outbound_20250101_13" from="921219577#1" to="375049565#10" begin="46800" end="50400" number="1252" />
    <flow id="D-38_Inbound_20250101_14" from="522435830#0" to="515476886#3" begin="50400" end="54000" number="1328" />
    <flow id="D-38_Outbound_20250101_14" from="218448824#2" to="522435826#4" begin="50400" end="54000" number="986" />
    <flow id="D-42_Inbound_20250101_14" from="218864491#0" to="921219576#4" begin="50400" end="54000" number="891" />
    <flow id="D-42_Outbound_20250101_14" from="921219577#1" to="375049565#10" begin="50400" end="54000" number="1268" />
    <flow id="D-38_Inbound_20250101_15" from="522435830#0" to="515476886#3" begin="54000" end="57600" number="1417" />
    <flow id="D-38_Outbound_20250101_15" from="218448824#2" to="522435826#4" begin="54000" end="57600" number="945" />
    <flow id="D-42_Inbound_20250101_15" from="218864491#0" to="921219576#4" begin="54000" end="57600" number="913" />
    <flow id="D-42_Outbound_20250101_15" from="921219577#1" to="375049565#10" begin="54000" end="57600" number="1260" />
    <flow id="D-38_Inbound_20250101_16" from="522435830#0" to="515476886#3" begin="57600" end="61200" number="1408" />
    <flow id="D-38_Outbound_20250101_16" from="218448824#2" to="522435826#4" begin="57600" end="61200" number="1004" />
    <flow id="D-42_Inbound_20250101_16" from="218864491#0" to="921219576#4" begin="57600" end="61200" number="825" />
    <flow id="D-42_Outbound_20250101_16" from="921219577#1" to="375049565#10" begin="57600" end="61200" number="1323" />
    <flow id="D-38_Inbound_20250101_17" from="522435830#0" to="515476886#3" begin="61200" end="64800" number="1424" />
    <flow id="D-38_Outbound_20250101_17" from="218448824#2" to="522435826#4" begin="61200" end="64800" number="944" />
    <flow id="D-42_Inbound_20250101_17" from="218864491#0" to="921219576#4" begin="61200" end="64800" number="944" />
    <flow id="D-42_Outbound_20250101_17" from="921219577#1" to="375049565#10" begin="61200" end="64800" number="1372" />
    <flow id="D-38_Inbound_20250101_18" from="522435830#0" to="515476886#3" begin="64800" end="68400" number="1264" />
    <flow id="D-38_Outbound_20250101_18" from="218448824#2" to="522435826#4" begin="64800" end="68400" number="873" />
    <flow id="D-42_Inbound_20250101_18" from="218864491#0" to="921219576#4" begin="64800" end="68400" number="810" />
    <flow id="D-42_Outbound_20250101_18" from="921219577#1" to="375049565#10" begin="64800" end="68400" number="1193" />
    <flow id="D-38_Inbound_20250101_19" from="522435830#0" to="515476886#3" begin="68400" end="72000" number="1057" />
    <flow id="D-38_Outbound_20250101_19" from="218448824#2" to="522435826#4" begin="68400" end="72000" number="714" />
    <flow id="D-42_Inbound_20250101_19" from="218864491#0" to="921219576#4" begin="68400" end="72000" number="733" />
    <flow id="D-42_Outbound_20250101_19" from="921219577#1" to="375049565#10" begin="68400" end="72000" number="1141" />
    <flow id="D-38_Inbound_20250101_20" from="522435830#0" to="515476886#3" begin="72000" end="75600" number="957" />
    <flow id="D-38_Outbound_20250101_20" from="218448824#2" to="522435826#4" begin="72000" end="75600" number="709" />
    <flow id="D-42_Inbound_20250101_20" from="218864491#0" to="921219576#4" begin="72000" end="75600" number="693" />
    <flow id="D-42_Outbound_20250101_20" from="921219577#1" to="375049565#10" begin="72000" end="75600" number="1046" />
    <flow id="D-38_Inbound_20250101_21" from="522435830#0" to="515476886#3" begin="75600" end="79200" number="893" />
    <flow id="D-38_Outbound_20250101_21" from="218448824#2" to="522435826#4" begin="75600" end="79200" number="780" />
    <flow id="D-42_Inbound_20250101_21" from="218864491#0" to="921219576#4" begin="75600" end="79200" number="716" />
    <flow id="D-42_Outbound_20250101_21" from="921219577#1" to="375049565#10" begin="75600" end="79200" number="1020" />
    <flow id="D-38_Inbound_20250101_22" from="522435830#0" to="515476886#3" begin="79200" end="82800" number="640" />
    <flow id="D-38_Outbound_20250101_22" from="218448824#2" to="522435826#4" begin="79200" end="82800" number="707" />
    <flow id="D-42_Inbound_20250101_22" from="218864491#0" to="921219576#4" begin="79200" end="82800" number="684" />
    <flow id="D-42_Outbound_20250101_22" from="921219577#1" to="375049565#10" begin="79200" end="82800" number="977" />
    <flow id="D-38_Inbound_20250101_23" from="522435830#0" to="515476886#3" begin="82800" end="86400" number="399" />
    <flow id="D-38_Outbound_20250101_23" from="218448824#2" to="522435826#4" begin="82800" end="86400" number="355" />
    <flow id="D-42_Inbound_20250101_23" from="218864491#0" to="921219576#4" begin="82800" end="86400" number="488" />
    <flow id="D-42_Outbound_20250101_23" from="921219577#1" to="375049565#10" begin="82800" end="86400" number="701" />
</routes>